SM-I/SouthCarolina500-parameter/branch.txt
fbus	tbus	r	x	b	rateA	rateB	rateC	ratio	angle	status	angmin	angmax	Pf	Qf	Pt	Qt	mu_Sf	mu_St	mu_angmin	mu_angmax
2	1	0.000531	0.00314	0	76.5	0	0	0	0	1	0	0	-42.8	-11.41	42.81	11.47	0	0	0	0
44	1	0.005479	0.050257	0.01781	320.29	0	0	0	0	1	0	0	36.34	7.94	-36.26	-9.1	0	0	0	0
421	1	0.005369	0.051555	0.01664	320.29	0	0	0	0	1	0	0	6.55	0.69	-6.55	-2.38	0	0	0	0
4	3	0.000692	0.003518	0	225.06	0	0	0	0	1	0	0	-132.69	-35.38	132.82	36.04	0	0	0	0
62	3	0.002718	0.026098	0.00842	320.29	0	0	0	0	1	0	0	12.18	12.15	-12.17	-12.92	0	0	0	0
3	479	0.007258	0.069699	0.0225	320.29	0	0	0	0	1	0	0	-120.65	-23.12	121.73	31.13	0	0	0	0
6	5	0.000556	0.003563	0	4.49	0	0	0	0	1	0	0	-3.21	-0.86	3.21	0.86	0	0	0	0
316	5	0.002445	0.02348	0.00758	320.29	0	0	0	0	1	0	0	-115.85	33.47	116.19	-30.96	0	0	0	0
401	5	0.004886	0.04692	0.01515	320.29	0	0	0	0	1	0	0	120.12	-24.72	-119.4	30.11	0	0	0	0
8	7	0.000355	0.0129	0	567	0	0	1	0	1	0	0	-257.02	-43.88	257.25	52.2	0	0	0	0
9	7	0.00012	0.01362	0	680	0	0	1	0	1	0	0	385.9	52.87	-385.73	-33.77	0	0	0	0
9	7	0.00012	0.01362	0	680	0	0	1	0	1	0	0	385.9	52.87	-385.73	-33.77	0	0	0	0
7	232	0.001119	0.014808	0.31205	1493.89	0	0	0	0	1	0	0	229.57	2.25	-229.02	-28.1	0	0	0	0
7	262	0.000947	0.013749	0.23994	1493.89	0	0	0	0	1	0	0	284.64	13.09	-283.92	-28.09	0	0	0	0
8	287	0.003727	0.035786	0.01155	320.29	0	0	0	0	1	0	0	198.27	21.48	-196.87	-9.18	0	0	0	0
8	457	0.001974	0.018955	0.00612	320.29	0	0	0	0	1	0	0	58.75	22.4	-58.67	-22.33	0	0	0	0
11	10	0.000655	0.003201	0	3.96	0	0	0	0	1	0	0	-2.47	-0.66	2.47	0.66	0	0	0	0
342	10	0.002825	0.027123	0.00876	320.29	0	0	0	0	1	0	0	-52.5	-14.37	52.59	14.25	0	0	0	0
10	349	0.001402	0.01346	0.00434	320.29	0	0	0	0	1	0	0	-55.06	-14.91	55.1	14.88	0	0	0	0
13	12	0.000623	0.003134	0	65.5	0	0	0	0	1	0	0	-37.16	-9.91	37.17	9.96	0	0	0	0
12	216	0.003962	0.038048	0.01228	320.29	0	0	0	0	1	0	0	29.1	-1.26	-29.07	0.38	0	0	0	0
12	304	0.00231	0.021191	0.00751	320.29	0	0	0	0	1	0	0	89.55	21.54	-89.35	-20.44	0	0	0	0
12	441	0.001565	0.015025	0.00485	320.29	0	0	0	0	1	0	0	-155.82	-30.23	156.22	33.6	0	0	0	0
15	14	0.000208	0.01122	0	682	0	0	1	0	1	0	0	-429.9	-61.48	430.28	81.77	0	0	0	0
16	14	0.000326	0.01202	0	596	0	0	1	0	1	0	0	444.45	84.69	-443.83	-61.94	0	0	0	0
17	14	0.000279	0.01438	0	674	0	0	1	0	1	0	0	444.28	76.25	-443.75	-49.24	0	0	0	0
17	14	0.000354	0.01438	0	674	0	0	1	0	1	0	0	444.62	73.92	-443.95	-46.91	0	0	0	0
18	14	0.001417	0.05115	0	340	0	0	1	0	1	0	0	157.6	21.68	-157.27	-9.71	0	0	0	0
386	14	0.000317	0.004547	0.08136	1493.89	0	0	0	0	1	0	0	-528.62	-39.7	529.46	43.2	0	0	0	0
386	14	0.00032	0.00455	0.08136	1493.9	0	0	0	0	1	0	0	-528.22	-39.34	529.07	42.84	0	0	0	0
15	91	0.004799	0.046085	0.01488	320.29	0	0	0	0	1	0	0	62.31	14.89	-62.12	-14.6	0	0	0	0
15	230	0.010894	0.104607	0.03377	320.29	0	0	0	0	1	0	0	116.91	3.4	-115.48	6.85	0	0	0	0
367	15	0.001918	0.018416	0.00594	320.29	0	0	0	0	1	0	0	-170.87	-21	171.42	25.69	0	0	0	0
15	369	0.001854	0.01701	0.00603	320.29	0	0	0	0	1	0	0	57.93	15.13	-57.86	-15.17	0	0	0	0
15	473	0.009225	0.084621	0.02999	320.29	0	0	0	0	1	0	0	21.33	2.38	-21.29	-5.11	0	0	0	0
20	19	0.000541	0.003886	0	7.53	0	0	0	0	1	0	0	-4.54	-1.21	4.54	1.21	0	0	0	0
19	112	0.004722	0.045345	0.01464	320.29	0	0	0	0	1	0	0	-19.8	10.98	19.82	-12.26	0	0	0	0
193	19	0.002221	0.021323	0.00688	320.29	0	0	0	0	1	0	0	2.15	-15.08	-2.15	14.41	0	0	0	0
19	272	0.002293	0.02202	0.00711	320.29	0	0	0	0	1	0	0	17.4	-26.61	-17.38	26.08	0	0	0	0
22	21	0.000587	0.003174	0	254.15	0	0	0	0	1	0	0	-148.7	-39.65	148.84	40.39	0	0	0	0
21	112	0.005092	0.048896	0.01578	320.29	0	0	0	0	1	0	0	50.64	-14.84	-50.5	14.55	0	0	0	0
21	196	0.002207	0.020247	0.00718	320.29	0	0	0	0	1	0	0	-199.47	-25.55	200.35	32.84	0	0	0	0
24	23	0.00033	0.01764	0	626	0	0	1	0	1	0	0	-298.22	-72.76	298.53	88.98	0	0	0	0
151	23	0.000182	0.002607	0.04665	1493.89	0	0	0	0	1	0	0	-71.51	37.67	71.52	-42.43	0	0	0	0
23	386	0.001642	0.023851	0.41623	1493.89	0	0	0	0	1	0	0	-247.04	4.96	248	-34.9	0	0	0	0
23	464	0.000947	0.012532	0.26411	1493.89	0	0	0	0	1	0	0	-14.36	-22.55	14.36	-5.32	0	0	0	0
23	471	0.000532	0.007041	0.14837	1493.89	0	0	0	0	1	0	0	-108.65	-28.96	108.71	14.09	0	0	0	0
25	24	0.000613	0.003629	0	3.56	0	0	0	0	1	0	0	-2.28	-0.61	2.28	0.61	0	0	0	0
26	24	0.000563	0.003729	0	29.46	0	0	0	0	1	0	0	-21.66	-5.78	21.67	5.8	0	0	0	0
210	24	0.002218	0.020344	0.00721	320.29	0	0	0	0	1	0	0	-123.73	-31.05	124.09	33.61	0	0	0	0
24	360	0.002365	0.022714	0.00733	320.29	0	0	0	0	1	0	0	150.19	32.75	-149.64	-28.25	0	0	0	0
28	27	0.000687	0.003963	0	108.61	0	0	0	0	1	0	0	-62.93	-16.78	62.96	16.95	0	0	0	0
27	68	0.005607	0.053845	0.01738	320.29	0	0	0	0	1	0	0	-97.08	18.66	97.62	-15.29	0	0	0	0
27	382	0.00337	0.030912	0.01095	320.29	0	0	0	0	1	0	0	34.12	15.72	-34.07	-16.41	0	0	0	0
30	29	0.000616	0.003298	0	156.98	0	0	0	0	1	0	0	-99.97	-26.66	100.04	27.01	0	0	0	0
454	29	0.00247	0.022656	0.00803	320.29	0	0	0	0	1	0	0	114.34	13.22	-114.02	-11.13	0	0	0	0
29	491	0.005607	0.053837	0.01738	320.29	0	0	0	0	1	0	0	13.99	-15.88	-13.96	14.32	0	0	0	0
32	31	0.000625	0.003429	0	15.7	0	0	0	0	1	0	0	-9.76	-2.6	9.77	2.61	0	0	0	0
31	85	0.005303	0.050926	0.01644	320.29	0	0	0	0	1	0	0	-41.18	16.64	41.28	-17.43	0	0	0	0
104	31	0.005526	0.053062	0.01713	320.29	0	0	0	0	1	0	0	-16.5	-26.09	16.55	24.75	0	0	0	0
31	189	0.005707	0.0548	0.01769	320.29	0	0	0	0	1	0	0	5.01	7.27	-5.01	-9.1	0	0	0	0
31	205	0.007797	0.074869	0.02417	320.29	0	0	0	0	1	0	0	-7.42	14.32	7.44	-16.66	0	0	0	0
31	218	0.008273	0.079446	0.02565	320.29	0	0	0	0	1	0	0	-32.37	10.12	32.46	-11.96	0	0	0	0
267	31	0.004897	0.047021	0.01518	320.29	0	0	0	0	1	0	0	-49.47	-30.94	49.63	30.88	0	0	0	0
34	33	0.000624	0.003284	0	43.35	0	0	0	0	1	0	0	-25	-6.67	25	6.69	0	0	0	0
83	33	0.005287	0.050764	0.01639	320.29	0	0	0	0	1	0	0	-13.97	-3.12	13.98	1.56	0	0	0	0
112	33	0.007061	0.067808	0.02189	320.29	0	0	0	0	1	0	0	39.09	7.07	-38.98	-8.25	0	0	0	0
36	35	0.000583	0.00303	0	62.87	0	0	0	0	1	0	0	-43.35	-11.56	43.36	11.62	0	0	0	0
191	35	0.004038	0.037042	0.01313	320.29	0	0	0	0	1	0	0	6.37	4.05	-6.36	-5.39	0	0	0	0
35	399	0.005636	0.054123	0.01747	320.29	0	0	0	0	1	0	0	-37	-6.23	37.07	5.14	0	0	0	0
38	37	0.000546	0.003823	0	0.18	0	0	0	0	1	0	0	-0.13	-0.03	0.13	0.03	0	0	0	0
76	37	0.001474	0.014156	0.00457	320.29	0	0	0	0	1	0	0	110.81	-21.91	-110.63	23.18	0	0	0	0
37	176	0.003039	0.02918	0.00942	320.29	0	0	0	0	1	0	0	110.5	-23.21	-110.13	25.81	0	0	0	0
40	39	0.0007	0.02531	0	428	0	0	1	0	1	0	0	-88.32	-22.73	88.38	24.74	0	0	0	0
39	332	0.000403	0.005786	0.10355	1493.89	0	0	0	0	1	0	0	-23.37	-0.61	23.38	-10.33	0	0	0	0
39	428	0.000521	0.006898	0.14538	1493.89	0	0	0	0	1	0	0	-65	-24.13	65.03	8.99	0	0	0	0
41	40	0.000631	0.003923	0	97.47	0	0	0	0	1	0	0	-57.99	-15.46	58.01	15.6	0	0	0	0
40	131	0.002909	0.026681	0.00946	320.29	0	0	0	0	1	0	0	30.31	7.13	-30.28	-7.87	0	0	0	0
43	42	0.000542	0.003119	0	7.7	0	0	0	0	1	0	0	-4.46	-1.19	4.46	1.19	0	0	0	0
81	42	0.002361	0.02166	0.00768	320.29	0	0	0	0	1	0	0	71.51	2.17	-71.39	-1.93	0	0	0	0
42	191	0.006368	0.05842	0.0207	320.29	0	0	0	0	1	0	0	66.93	0.74	-66.66	-0.4	0	0	0	0
45	44	0.000637	0.003876	0	2.84	0	0	0	0	1	0	0	-2.03	-0.54	2.03	0.54	0	0	0	0
44	200	0.002105	0.019311	0.00684	320.29	0	0	0	0	1	0	0	-38.37	-8.48	38.4	8.06	0	0	0	0
47	46	0.000602	0.003454	0	63	0	0	0	0	1	0	0	-43.41	-11.58	43.42	11.65	0	0	0	0
46	156	0.006611	0.063482	0.02049	320.29	0	0	0	0	1	0	0	41.36	18.42	-41.23	-19.14	0	0	0	0
238	46	0.003134	0.030093	0.00971	320.29	0	0	0	0	1	0	0	85.04	31.48	-84.79	-30.07	0	0	0	0
49	48	0.01331	0.27853	0	57	0	0	1	0	1	0	0	1.3	0.61	-1.3	-0.6	0	0	0	0
50	48	0.00715	0.16356	0	70	0	0	1	0	1	0	0	2.6	1.21	-2.6	-1.2	0	0	0	0
51	48	0.000658	0.003672	0	0.56	0	0	0	0	1	0	0	-0.35	-0.09	0.35	0.09	0	0	0	0
52	48	0.00062	0.003342	0	37.95	0	0	0	0	1	0	0	-23.39	-6.24	23.39	6.26	0	0	0	0
358	48	0.0045	0.041283	0.01463	320.29	0	0	0	0	1	0	0	-3.12	2.77	3.13	-4.23	0	0	0	0
419	48	0.004637	0.044525	0.01437	320.29	0	0	0	0	1	0	0	23	-0.88	-22.97	-0.32	0	0	0	0
54	53	0.00068	0.003061	0	51.27	0	0	0	0	1	0	0	-34.81	-9.28	34.82	9.32	0	0	0	0
233	53	0.002362	0.021667	0.00768	320.29	0	0	0	0	1	0	0	98.27	1.18	-98.05	0.04	0	0	0	0
53	276	0.001502	0.014424	0.00466	320.29	0	0	0	0	1	0	0	63.23	-9.36	-63.17	9.45	0	0	0	0
56	55	0.000641	0.00331	0	3.15	0	0	0	0	1	0	0	-2.25	-0.6	2.25	0.6	0	0	0	0
55	66	0.00433	0.041575	0.01342	320.29	0	0	0	0	1	0	0	-36.74	-1.94	36.8	1.08	0	0	0	0
55	500	0.004481	0.041102	0.01457	320.29	0	0	0	0	1	0	0	34.49	1.33	-34.44	-2.37	0	0	0	0
58	57	0.00012	0.01762	0	675	0	0	1	0	1	0	0	-282.87	-38.09	282.97	52.38	0	0	0	0
58	57	0.00012	0.01762	0	675	0	0	1	0	1	0	0	-282.87	-38.09	282.97	52.38	0	0	0	0
57	123	0.001682	0.024427	0.42627	1493.89	0	0	0	0	1	0	0	-438.14	-51.31	441.32	53.1	0	0	0	0
440	57	0.000601	0.008726	0.15227	1493.89	0	0	0	0	1	0	0	127.9	39.42	-127.79	-53.46	0	0	0	0
59	58	0.00062	0.003848	0	252.93	0	0	0	0	1	0	0	-140.94	-37.58	141.07	38.4	0	0	0	0
58	253	0.004532	0.04352	0.01405	320.29	0	0	0	0	1	0	0	95.15	17.25	-94.73	-14.58	0	0	0	0
322	58	0.002019	0.019385	0.00626	320.29	0	0	0	0	1	0	0	-164.23	-5.63	164.78	10.26	0	0	0	0
322	58	0.00202	0.01939	0.00626	320.3	0	0	0	0	1	0	0	-164.19	-5.62	164.74	10.26	0	0	0	0
61	60	0.000529	0.003518	0	0.32	0	0	0	0	1	0	0	-0.2	-0.05	0.2	0.05	0	0	0	0
60	131	0.001985	0.018208	0.00645	320.29	0	0	0	0	1	0	0	-13.13	-2.88	13.14	2.24	0	0	0	0
466	60	0.002011	0.019314	0.00623	320.29	0	0	0	0	1	0	0	-12.93	-3.44	12.93	2.83	0	0	0	0
63	62	0.0032	0.16353	0	70	0	0	1	0	1	0	0	0	0	0	0	0	0	0	0
64	62	0.000661	0.003274	0	45.58	0	0	0	0	1	0	0	-34.78	-9.27	34.78	9.32	0	0	0	0
287	62	0.005453	0.052365	0.0169	320.29	0	0	0	0	1	0	0	-21.38	10.33	21.41	-11.77	0	0	0	0
62	457	0.007267	0.069786	0.02253	320.29	0	0	0	0	1	0	0	-68.37	-9.69	68.71	10.62	0	0	0	0
66	65	0.000808	0.03088	0	405	0	0	1	0	1	0	0	-100.74	-9.41	100.82	12.44	0	0	0	0
80	65	0.00096	0.013773	0.24648	1493.89	0	0	0	0	1	0	0	63.89	31.2	-63.84	-56.5	0	0	0	0
65	297	0.00092	0.013192	0.23607	1493.89	0	0	0	0	1	0	0	-36.98	44.05	37.02	-68.13	0	0	0	0
67	66	0.000661	0.003359	0	6.71	0	0	0	0	1	0	0	-4.57	-1.22	4.57	1.22	0	0	0	0
66	308	0.00718	0.06895	0.02226	320.29	0	0	0	0	1	0	0	59.37	7.12	-59.13	-7.04	0	0	0	0
69	68	0.000669	0.003998	0	27.64	0	0	0	0	1	0	0	-16.96	-4.52	16.96	4.54	0	0	0	0
68	295	0.004469	0.040995	0.01453	320.29	0	0	0	0	1	0	0	-61.91	5.98	62.08	-5.91	0	0	0	0
68	314	0.001805	0.017334	0.0056	320.29	0	0	0	0	1	0	0	-52.67	4.77	52.72	-4.87	0	0	0	0
71	70	0.00103	0.04472	0	133	0	0	1	0	1	0	0	4	1.54	-4	-1.53	0	0	0	0
72	70	0.00292	0.14481	0	60	0	0	1	0	1	0	0	2	0.77	-2	-0.76	0	0	0	0
73	70	0.012696	0.27303	0	49	0	0	1	0	1	0	0	1.4	0.54	-1.4	-0.53	0	0	0	0
216	70	0.002596	0.02381	0.00844	320.29	0	0	0	0	1	0	0	-26.05	-15.18	26.08	14.56	0	0	0	0
70	490	0.002127	0.019512	0.00691	320.29	0	0	0	0	1	0	0	-18.68	-11.74	18.69	11.15	0	0	0	0
75	74	0.000584	0.003339	0	8.81	0	0	0	0	1	0	0	-5.3	-1.41	5.3	1.41	0	0	0	0
74	189	0.005632	0.054084	0.01746	320.29	0	0	0	0	1	0	0	9.07	-7.12	-9.06	5.34	0	0	0	0
240	74	0.004434	0.04067	0.01441	320.29	0	0	0	0	1	0	0	14.38	-7.12	-14.37	5.7	0	0	0	0
77	76	0.000695	0.003313	0	12.16	0	0	0	0	1	0	0	-6.95	-1.85	6.95	1.86	0	0	0	0
452	76	0.002012	0.019322	0.00624	320.29	0	0	0	0	1	0	0	118.04	-18.04	-117.76	20.06	0	0	0	0
79	78	0.000622	0.003279	0	0.52	0	0	0	0	1	0	0	-0.38	-0.1	0.38	0.1	0	0	0	0
78	328	0.005432	0.049829	0.01766	320.29	0	0	0	0	1	0	0	157.83	16.76	-156.49	-6.29	0	0	0	0
78	387	0.002354	0.022609	0.0073	320.29	0	0	0	0	1	0	0	-158.21	-16.86	158.79	21.69	0	0	0	0
81	80	0.00065	0.03481	0	529	0	0	1	0	1	0	0	-137.37	-11.08	137.48	17.36	0	0	0	0
82	80	0.00043	0.03113	0	628	0	0	1	0	1	0	0	361.9	41.13	-361.37	-2.95	0	0	0	0
407	80	0.000818	0.010825	0.22813	1493.89	0	0	0	0	1	0	0	-159.79	23.98	160	-45.61	0	0	0	0
149	81	0.002879	0.02641	0.00936	320.29	0	0	0	0	1	0	0	-65.74	-8.78	65.86	8.91	0	0	0	0
84	83	0.000638	0.003655	0	105.41	0	0	0	0	1	0	0	-61.41	-16.38	61.43	16.52	0	0	0	0
83	342	0.004116	0.03952	0.01276	320.29	0	0	0	0	1	0	0	-47.46	-13.4	47.56	13.05	0	0	0	0
86	85	0.000652	0.003901	0	30.04	0	0	0	0	1	0	0	-17.59	-4.69	17.59	4.7	0	0	0	0
272	85	0.004412	0.04047	0.01434	320.29	0	0	0	0	1	0	0	59.03	-12.83	-58.87	12.72	0	0	0	0
88	87	0.000623	0.003569	0	7.69	0	0	0	0	1	0	0	-5.25	-1.4	5.25	1.4	0	0	0	0
87	141	0.001846	0.017727	0.00572	320.29	0	0	0	0	1	0	0	319.54	-21.94	-317.65	39.51	0	0	0	0
87	143	0.00382	0.035043	0.01242	320.29	0	0	0	0	1	0	0	-291.36	-5.02	294.6	33.45	0	0	0	0
423	87	0.001836	0.017627	0.00569	320.29	0	0	0	0	1	0	0	33.46	-25.81	-33.43	25.56	0	0	0	0
90	89	0.000554	0.003864	0	10.48	0	0	0	0	1	0	0	-5.9	-1.57	5.9	1.57	0	0	0	0
89	187	0.002116	0.020322	0.00656	320.29	0	0	0	0	1	0	0	34.3	-0.29	-34.28	-0.15	0	0	0	0
89	457	0.009012	0.082666	0.02929	320.29	0	0	0	0	1	0	0	-40.2	-1.28	40.34	-0.48	0	0	0	0
92	91	0.000572	0.003617	0	104.24	0	0	0	0	1	0	0	-65.03	-17.34	65.05	17.5	0	0	0	0
91	133	0.00504	0.048401	0.01562	320.29	0	0	0	0	1	0	0	-2.93	-2.9	2.93	1.3	0	0	0	0
94	93	0.000536	0.003281	0	8.18	0	0	0	0	1	0	0	-5.21	-1.39	5.21	1.39	0	0	0	0
269	93	0.003921	0.035965	0.01275	320.29	0	0	0	0	1	0	0	-41.91	4.85	41.98	-5.55	0	0	0	0
336	93	0.005795	0.053155	0.01884	320.29	0	0	0	0	1	0	0	47.32	-4.94	-47.19	4.15	0	0	0	0
96	95	0.000563	0.003253	0	56.18	0	0	0	0	1	0	0	-34	-9.07	34.01	9.11	0	0	0	0
95	170	0.002111	0.020268	0.00654	320.29	0	0	0	0	1	0	0	12.28	0.82	-12.28	-1.45	0	0	0	0
95	369	0.004094	0.039316	0.01269	320.29	0	0	0	0	1	0	0	-46.29	-9.92	46.38	9.47	0	0	0	0
98	97	0.000569	0.003986	0	66.43	0	0	0	0	1	0	0	-37.09	-9.89	37.1	9.95	0	0	0	0
181	97	0.002992	0.028734	0.00928	320.29	0	0	0	0	1	0	0	14.76	21.11	-14.74	-21.86	0	0	0	0
358	97	0.002676	0.024552	0.0087	320.29	0	0	0	0	1	0	0	22.38	-12.63	-22.36	11.91	0	0	0	0
100	99	0.000644	0.00362	0	22.69	0	0	0	0	1	0	0	-13.52	-3.61	13.52	3.61	0	0	0	0
101	99	0.000699	0.003294	0	1.37	0	0	0	0	1	0	0	-0.89	-0.24	0.89	0.24	0	0	0	0
99	465	0.002689	0.02582	0.00834	320.29	0	0	0	0	1	0	0	-9.36	-4.72	9.36	3.88	0	0	0	0
472	99	0.003318	0.031864	0.01029	320.29	0	0	0	0	1	0	0	5.06	-1.94	-5.06	0.87	0	0	0	0
103	102	0.000614	0.003874	0	64.6	0	0	0	0	1	0	0	-38.8	-10.35	38.81	10.41	0	0	0	0
102	308	0.00565	0.054254	0.01751	320.29	0	0	0	0	1	0	0	-67.06	-10.06	67.32	10.76	0	0	0	0
419	102	0.003638	0.034938	0.01128	320.29	0	0	0	0	1	0	0	-28.22	-0.51	28.25	-0.35	0	0	0	0
105	104	0.000673	0.003751	0	144.23	0	0	0	0	1	0	0	-80.33	-21.42	80.38	21.67	0	0	0	0
104	191	0.005177	0.047485	0.01683	320.29	0	0	0	0	1	0	0	-63.88	4.42	64.08	-4.28	0	0	0	0
107	106	0.000575	0.003206	0	24.46	0	0	0	0	1	0	0	-16.01	-4.27	16.01	4.28	0	0	0	0
106	191	0.004468	0.042904	0.01385	320.29	0	0	0	0	1	0	0	41.52	-3.15	-41.45	2.42	0	0	0	0
236	106	0.003115	0.029915	0.00966	320.29	0	0	0	0	1	0	0	57.63	1.07	-57.53	-1.13	0	0	0	0
109	108	0.000658	0.00301	0	62.91	0	0	0	0	1	0	0	-47.58	-12.69	47.6	12.76	0	0	0	0
108	472	0.002033	0.019521	0.0063	320.29	0	0	0	0	1	0	0	-97.62	-24.6	97.82	25.86	0	0	0	0
108	495	0.003611	0.034672	0.01119	320.29	0	0	0	0	1	0	0	50.02	11.84	-49.93	-12.09	0	0	0	0
111	110	0.000527	0.003708	0	87.02	0	0	0	0	1	0	0	-62.29	-16.61	62.31	16.76	0	0	0	0
274	110	0.003126	0.030018	0.00969	320.29	0	0	0	0	1	0	0	-49.26	1.38	49.33	-1.71	0	0	0	0
110	316	0.003439	0.033025	0.01066	320.29	0	0	0	0	1	0	0	-111.64	37.72	112.09	-34.47	0	0	0	0
113	112	0.000644	0.003119	0	72.98	0	0	0	0	1	0	0	-45.99	-12.26	46	12.33	0	0	0	0
193	112	0.002867	0.027534	0.00889	320.29	0	0	0	0	1	0	0	-30.85	7.39	30.88	-8.04	0	0	0	0
112	236	0.006329	0.060777	0.01962	320.29	0	0	0	0	1	0	0	0.64	-14.87	-0.63	12.95	0	0	0	0
112	283	0.008619	0.08276	0.02672	320.29	0	0	0	0	1	0	0	11.14	-5.82	-11.13	3.18	0	0	0	0
372	112	0.002007	0.019267	0.00622	320.29	0	0	0	0	1	0	0	152	11.55	-151.55	-7.88	0	0	0	0
112	499	0.005577	0.051155	0.01813	320.29	0	0	0	0	1	0	0	54.47	14.93	-54.3	-15.17	0	0	0	0
115	114	0.000506	0.00336	0	6.74	0	0	0	0	1	0	0	-5.06	-1.35	5.06	1.35	0	0	0	0
116	114	0.000505	0.003411	0	5.26	0	0	0	0	1	0	0	-3.1	-0.83	3.1	0.83	0	0	0	0
114	191	0.005557	0.053364	0.01723	320.29	0	0	0	0	1	0	0	-17.77	0.13	17.79	-1.75	0	0	0	0
114	312	0.006609	0.063462	0.02049	320.29	0	0	0	0	1	0	0	9.61	-2.3	-9.6	0.23	0	0	0	0
118	117	0.000634	0.003851	0	12.8	0	0	0	0	1	0	0	-8.83	-2.36	8.83	2.36	0	0	0	0
117	426	0.003172	0.029099	0.01031	320.29	0	0	0	0	1	0	0	-57.41	-21.23	57.53	21.25	0	0	0	0
490	117	0.002999	0.027508	0.00975	320.29	0	0	0	0	1	0	0	-48.5	-19.1	48.58	18.87	0	0	0	0
120	119	0.000556	0.003059	0	46.58	0	0	0	0	1	0	0	-31.65	-8.44	31.66	8.47	0	0	0	0
119	129	0.00235	0.021554	0.00764	320.29	0	0	0	0	1	0	0	41.7	8.51	-41.66	-8.85	0	0	0	0
253	119	0.001494	0.01435	0.00463	320.29	0	0	0	0	1	0	0	73.44	17.37	-73.36	-16.99	0	0	0	0
122	121	0.000555	0.003846	0	70.42	0	0	0	0	1	0	0	-53.36	-14.23	53.38	14.34	0	0	0	0
121	276	0.002548	0.024463	0.0079	320.29	0	0	0	0	1	0	0	-16.74	-15.3	16.76	14.61	0	0	0	0
121	287	0.007088	0.068058	0.02197	320.29	0	0	0	0	1	0	0	-36.64	0.96	36.73	-2.32	0	0	0	0
124	123	0.0002	0.01438	0	488	0	0	1	0	1	0	0	-90.55	-15.61	90.57	16.76	0	0	0	0
125	123	0.00028	0.04064	0	346	0	0	1	0	1	0	0	0	0	0	0	0	0	0	0
126	123	0.00015	0.02189	0	352	0	0	1	0	1	0	0	0	0	0	0	0	0	0	0
127	123	0.00038	0.04792	0	378	0	0	1	0	1	0	0	162	26.1	-161.91	-14.17	0	0	0	0
128	123	0.00016	0.01585	0	391	0	0	1	0	1	0	0	162	62.21	-161.96	-57.79	0	0	0	0
165	123	0.000216	0.003138	0.05475	1493.89	0	0	0	0	1	0	0	208.12	-6.63	-208.03	2.1	0	0	0	0
124	260	0.00204	0.018709	0.00663	320.29	0	0	0	0	1	0	0	35.31	7.62	-35.28	-8.09	0	0	0	0
124	369	0.007693	0.070568	0.02501	320.29	0	0	0	0	1	0	0	55.25	7.99	-55.02	-8.51	0	0	0	0
130	129	0.000698	0.003221	0	165.98	0	0	0	0	1	0	0	-103.24	-27.53	103.32	27.91	0	0	0	0
304	129	0.003063	0.029412	0.00949	320.29	0	0	0	0	1	0	0	16.67	1.22	-16.66	-2.06	0	0	0	0
324	129	0.001878	0.017231	0.00611	320.29	0	0	0	0	1	0	0	45.05	16.82	-45.01	-17	0	0	0	0
132	131	0.000673	0.003615	0	41.59	0	0	0	0	1	0	0	-25.2	-6.72	25.21	6.74	0	0	0	0
131	333	0.002227	0.021386	0.0069	320.29	0	0	0	0	1	0	0	-8.06	-1.12	8.06	0.41	0	0	0	0
134	133	0.000515	0.003083	0	66.01	0	0	0	0	1	0	0	-42.65	-11.37	42.65	11.43	0	0	0	0
133	226	0.00644	0.059077	0.02094	320.29	0	0	0	0	1	0	0	5.52	-0.37	-5.52	-1.76	0	0	0	0
133	369	0.006155	0.056462	0.02001	320.29	0	0	0	0	1	0	0	-30.83	-6.2	30.89	4.67	0	0	0	0
473	133	0.004755	0.045657	0.01474	320.29	0	0	0	0	1	0	0	20.29	4.84	-20.27	-6.17	0	0	0	0
136	135	0.000549	0.00366	0	45.59	0	0	0	0	1	0	0	-26.76	-7.14	26.76	7.16	0	0	0	0
135	287	0.007568	0.069421	0.0246	320.29	0	0	0	0	1	0	0	32	-3.09	-31.92	1.25	0	0	0	0
135	457	0.006865	0.062973	0.02232	320.29	0	0	0	0	1	0	0	-58.76	-4.07	58.99	3.87	0	0	0	0
138	137	0.000556	0.003788	0	122.92	0	0	0	0	1	0	0	-78.7	-20.99	78.74	21.24	0	0	0	0
137	214	0.00312	0.029961	0.00967	320.29	0	0	0	0	1	0	0	50.19	4.52	-50.12	-4.75	0	0	0	0
137	426	0.002998	0.028792	0.00929	320.29	0	0	0	0	1	0	0	-64.47	-12.88	64.59	13.16	0	0	0	0
137	426	0.003	0.02879	0.00929	320.3	0	0	0	0	1	0	0	-64.47	-12.88	64.6	13.15	0	0	0	0
140	139	0.0006	0.003182	0	0.36	0	0	0	0	1	0	0	-0.26	-0.07	0.26	0.07	0	0	0	0
139	376	0.002676	0.025697	0.0083	320.29	0	0	0	0	1	0	0	89.14	24.44	-88.92	-23.16	0	0	0	0
429	139	0.001468	0.014094	0.00455	320.29	0	0	0	0	1	0	0	89.52	25.21	-89.4	-24.51	0	0	0	0
142	141	0.000687	0.003417	0	209.78	0	0	0	0	1	0	0	-161.34	-43.02	161.54	43.98	0	0	0	0
300	141	0.00267	0.024495	0.00868	320.29	0	0	0	0	1	0	0	-155.43	38.79	156.11	-33.44	0	0	0	0
144	143	0.00152	0.0766	0	336	0	0	1	0	1	0	0	301.27	55.8	-299.96	10.69	0	0	0	0
144	143	0.00152	0.0766	0	336	0	0	1	0	1	0	0	301.27	55.8	-299.96	10.69	0	0	0	0
145	143	0.00119	0.0337	0	322	0	0	1	0	1	0	0	150.27	63.68	-149.98	-55.38	0	0	0	0
145	143	0.00119	0.0337	0	322	0	0	1	0	1	0	0	150.27	63.68	-149.98	-55.38	0	0	0	0
143	338	0.002116	0.019409	0.00688	320.29	0	0	0	0	1	0	0	123.52	27.62	-123.19	-25.33	0	0	0	0
143	401	0.004057	0.038957	0.01258	320.29	0	0	0	0	1	0	0	210.25	14.53	-208.51	0.86	0	0	0	0
143	452	0.007537	0.07237	0.02336	320.29	0	0	0	0	1	0	0	130.44	-5.6	-129.2	15.06	0	0	0	0
496	143	0.002039	0.019581	0.00632	320.29	0	0	0	0	1	0	0	-140.67	-16.21	141.07	19.38	0	0	0	0
147	146	0.001007	0.05565	0	272	0	0	1	0	1	0	0	-22.58	-20.8	22.59	21.3	0	0	0	0
146	162	0.000285	0.004083	0.07307	1493.89	0	0	0	0	1	0	0	-17.66	-9.92	17.67	2.2	0	0	0	0
146	195	0.000327	0.004333	0.09131	1493.89	0	0	0	0	1	0	0	-4.92	-11.38	4.92	1.72	0	0	0	0
148	147	0.000593	0.003935	0	102.39	0	0	0	0	1	0	0	-57.42	-15.31	57.44	15.45	0	0	0	0
475	147	0.003185	0.030585	0.00987	320.29	0	0	0	0	1	0	0	34.9	-6	-34.86	5.35	0	0	0	0
150	149	0.00068	0.003693	0	2.36	0	0	0	0	1	0	0	-1.5	-0.4	1.5	0.4	0	0	0	0
293	149	0.004385	0.042112	0.01359	320.29	0	0	0	0	1	0	0	-54.18	-1.93	54.3	1.7	0	0	0	0
489	149	0.002444	0.023466	0.00758	320.29	0	0	0	0	1	0	0	-9.93	-7.43	9.93	6.68	0	0	0	0
152	151	0.000342	0.0203	0	570	0	0	1	0	1	0	0	-217.73	4.05	217.89	5.07	0	0	0	0
428	151	0.000454	0.006011	0.12668	1493.89	0	0	0	0	1	0	0	146.48	30.6	-146.38	-42.74	0	0	0	0
153	152	0.000529	0.003112	0	130.11	0	0	0	0	1	0	0	-93.15	-24.84	93.2	25.12	0	0	0	0
238	152	0.002155	0.02069	0.00668	320.29	0	0	0	0	1	0	0	-124.18	-41.98	124.53	44.72	0	0	0	0
155	154	0.000533	0.003005	0	89.97	0	0	0	0	1	0	0	-66.84	-17.82	66.87	17.97	0	0	0	0
154	429	0.002119	0.020352	0.00657	320.29	0	0	0	0	1	0	0	-140.47	-35.17	140.9	38.67	0	0	0	0
154	488	0.008007	0.07345	0.02603	320.29	0	0	0	0	1	0	0	73.6	17.2	-73.15	-15.66	0	0	0	0
157	156	0.000597	0.003579	0	164.26	0	0	0	0	1	0	0	-105.45	-28.12	105.53	28.56	0	0	0	0
488	156	0.001861	0.017075	0.00605	320.29	0	0	0	0	1	0	0	64.38	9.56	-64.3	-9.41	0	0	0	0
159	158	0.000601	0.003873	0	31.35	0	0	0	0	1	0	0	-22.85	-6.09	22.85	6.11	0	0	0	0
158	233	0.006097	0.055925	0.01982	320.29	0	0	0	0	1	0	0	-47.77	-9.82	47.91	9.07	0	0	0	0
158	291	0.005133	0.049293	0.01591	320.29	0	0	0	0	1	0	0	24.92	3.7	-24.88	-5.01	0	0	0	0
161	160	0.000556	0.003568	0	44.84	0	0	0	0	1	0	0	-25.95	-6.92	25.96	6.95	0	0	0	0
160	212	0.002567	0.02465	0.00796	320.29	0	0	0	0	1	0	0	-13.35	0.28	13.36	-1.07	0	0	0	0
160	399	0.004015	0.036828	0.01305	320.29	0	0	0	0	1	0	0	-12.6	-7.23	12.61	5.94	0	0	0	0
163	162	0.000345	0.01982	0	510	0	0	1	0	1	0	0	-72.78	-18.32	72.8	19.38	0	0	0	0
163	162	0.000366	0.01982	0	510	0	0	1	0	1	0	0	-72.8	-18.24	72.82	19.3	0	0	0	0
162	195	0.000226	0.003275	0.05716	1493.89	0	0	0	0	1	0	0	15.56	-4.16	-15.56	-1.89	0	0	0	0
162	220	0.00139	0.018388	0.3875	1493.89	0	0	0	0	1	0	0	-398.7	-14.51	400.78	0.81	0	0	0	0
162	232	0.000529	0.007594	0.13589	1493.89	0	0	0	0	1	0	0	219.85	-22.21	-219.61	11.3	0	0	0	0
164	163	0.00065	0.003987	0	174.51	0	0	0	0	1	0	0	-98.15	-26.17	98.22	26.57	0	0	0	0
200	163	0.003267	0.029965	0.01062	320.29	0	0	0	0	1	0	0	-47.29	-10.43	47.36	9.99	0	0	0	0
166	165	0.000183	0.00871	0	606	0	0	1	0	1	0	0	-332.81	-56.73	333.01	66.19	0	0	0	0
167	165	0.000463	0.02157	0	411	0	0	1	0	1	0	0	193.5	45.92	-193.33	-38.04	0	0	0	0
168	165	0.00029	0.03549	0	445	0	0	1	0	1	0	0	193.5	32.78	-193.4	-20.14	0	0	0	0
169	165	0.00035	0.02558	0	543	0	0	1	0	1	0	0	387	51.63	-386.51	-15.58	0	0	0	0
165	386	0.000718	0.010423	0.18188	1493.89	0	0	0	0	1	0	0	232.1	14.19	-231.74	-28.09	0	0	0	0
166	228	0.004845	0.044445	0.01575	320.29	0	0	0	0	1	0	0	210.14	40.28	-208.02	-22.49	0	0	0	0
260	166	0.00199	0.01825	0.00647	320.29	0	0	0	0	1	0	0	16.6	3.09	-16.59	-3.72	0	0	0	0
166	289	0.002113	0.020294	0.00655	320.29	0	0	0	0	1	0	0	139.26	20.18	-138.87	-17.03	0	0	0	0
171	170	0.000513	0.003774	0	20.92	0	0	0	0	1	0	0	-12.38	-3.3	12.38	3.31	0	0	0	0
170	226	0.004631	0.042483	0.01506	320.29	0	0	0	0	1	0	0	-0.09	-1.85	0.09	0.31	0	0	0	0
173	172	0.000675	0.003134	0	4.69	0	0	0	0	1	0	0	-3.14	-0.84	3.14	0.84	0	0	0	0
174	172	0.000586	0.003039	0	12.34	0	0	0	0	1	0	0	-7.3	-1.95	7.31	1.95	0	0	0	0
202	172	0.004073	0.039112	0.01263	320.29	0	0	0	0	1	0	0	21.35	-9.66	-21.33	8.6	0	0	0	0
172	244	0.003291	0.031599	0.0102	320.29	0	0	0	0	1	0	0	10.89	-11.38	-10.88	10.42	0	0	0	0
176	175	0.00039	0.03857	0	273	0	0	1	0	1	0	0	39.33	-28.99	-39.32	29.87	0	0	0	0
175	220	0.001099	0.01596	0.27851	1493.89	0	0	0	0	1	0	0	39.32	-29.87	-39.3	0.31	0	0	0	0
177	176	0.000557	0.003649	0	12.91	0	0	0	0	1	0	0	-8.78	-2.34	8.78	2.34	0	0	0	0
178	176	0.000684	0.003156	0	10.65	0	0	0	0	1	0	0	-6.81	-1.82	6.81	1.82	0	0	0	0
318	176	0.003427	0.032909	0.01062	320.29	0	0	0	0	1	0	0	-55.11	0.83	55.21	-0.98	0	0	0	0
180	179	0.000694	0.003302	0	25.21	0	0	0	0	1	0	0	-14.14	-3.77	14.14	3.78	0	0	0	0
179	291	0.005964	0.05727	0.01849	320.29	0	0	0	0	1	0	0	-17.25	-4.67	17.27	2.98	0	0	0	0
345	179	0.005081	0.046608	0.01652	320.29	0	0	0	0	1	0	0	-8.43	-4.88	8.44	3.26	0	0	0	0
179	374	0.003774	0.036236	0.0117	320.29	0	0	0	0	1	0	0	-5.32	-2.36	5.33	1.19	0	0	0	0
182	181	0.000631	0.003715	0	145.73	0	0	0	0	1	0	0	-82.61	-22.03	82.66	22.3	0	0	0	0
181	487	0.002751	0.026421	0.00853	320.29	0	0	0	0	1	0	0	-97.42	17.95	97.68	-16.28	0	0	0	0
184	183	0.000542	0.003008	0	40.45	0	0	0	0	1	0	0	-30.18	-8.05	30.18	8.08	0	0	0	0
183	247	0.001965	0.018868	0.00609	320.29	0	0	0	0	1	0	0	18.99	-9.07	-18.98	8.51	0	0	0	0
183	274	0.003673	0.035265	0.01138	320.29	0	0	0	0	1	0	0	-49.17	1	49.26	-1.38	0	0	0	0
186	185	0.000562	0.003066	0	76.88	0	0	0	0	1	0	0	-45.35	-12.09	45.36	12.16	0	0	0	0
445	185	0.003074	0.028201	0.00999	320.29	0	0	0	0	1	0	0	-89.88	1.98	90.13	-0.75	0	0	0	0
185	467	0.002016	0.018496	0.00655	320.29	0	0	0	0	1	0	0	-135.49	-11.41	135.85	14.09	0	0	0	0
188	187	0.00067	0.003145	0	19.87	0	0	0	0	1	0	0	-11.05	-2.95	11.05	2.95	0	0	0	0
187	454	0.013848	0.127035	0.04502	320.29	0	0	0	0	1	0	0	23.23	-2.8	-23.15	-1.19	0	0	0	0
190	189	0.00069	0.00301	0	22.9	0	0	0	0	1	0	0	-14.07	-3.75	14.07	3.76	0	0	0	0
192	191	0.000684	0.003764	0	27.24	0	0	0	0	1	0	0	-16.44	-4.38	16.44	4.39	0	0	0	0
191	205	0.005326	0.051141	0.01651	320.29	0	0	0	0	1	0	0	31.96	-8.09	-31.9	6.9	0	0	0	0
191	293	0.005164	0.049592	0.01601	320.29	0	0	0	0	1	0	0	-28.53	3.66	28.57	-4.92	0	0	0	0
194	193	0.000696	0.003802	0	49.31	0	0	0	0	1	0	0	-28.69	-7.65	28.7	7.68	0	0	0	0
196	195	0.00023	0.01443	0	560	0	0	1	0	1	0	0	-286.79	-56.13	286.98	67.99	0	0	0	0
197	195	0.0006	0.03102	0	597	0	0	1	0	1	0	0	293.6	43.37	-293.11	-18.11	0	0	0	0
198	195	0.000386	0.02185	0	527	0	0	1	0	1	0	0	207.3	52.65	-207.14	-43.41	0	0	0	0
371	195	0.000451	0.005966	0.12573	1493.89	0	0	0	0	1	0	0	-223.69	-4.18	223.91	-6.3	0	0	0	0
199	196	0.000693	0.003312	0	123.99	0	0	0	0	1	0	0	-86.39	-23.04	86.45	23.29	0	0	0	0
201	200	0.000686	0.003174	0	14.82	0	0	0	0	1	0	0	-8.89	-2.37	8.89	2.37	0	0	0	0
203	202	0.000644	0.003618	0	6.57	0	0	0	0	1	0	0	-4.69	-1.25	4.69	1.25	0	0	0	0
204	202	0.000553	0.003889	0	72.65	0	0	0	0	1	0	0	-45.67	-12.18	45.68	12.26	0	0	0	0
380	202	0.00536	0.05147	0.01661	320.29	0	0	0	0	1	0	0	71.99	4.82	-71.72	-3.86	0	0	0	0
206	205	0.000554	0.003028	0	4.37	0	0	0	0	1	0	0	-3.01	-0.8	3.01	0.8	0	0	0	0
207	205	0.000653	0.0037	0	30.41	0	0	0	0	1	0	0	-22.57	-6.02	22.58	6.04	0	0	0	0
205	312	0.006767	0.062072	0.022	320.29	0	0	0	0	1	0	0	-1.12	2.93	1.12	-5.21	0	0	0	0
209	208	0.000514	0.003601	0	141.36	0	0	0	0	1	0	0	-81.85	-21.83	81.89	22.08	0	0	0	0
322	208	0.00286	0.027459	0.00886	320.29	0	0	0	0	1	0	0	134.18	-48.79	-133.59	53.52	0	0	0	0
356	208	0.002554	0.024525	0.00792	320.29	0	0	0	0	1	0	0	-51.63	-5.72	51.7	5.57	0	0	0	0
211	210	0.000679	0.003783	0	54.3	0	0	0	0	1	0	0	-34.28	-9.14	34.29	9.19	0	0	0	0
488	210	0.003712	0.035641	0.01151	320.29	0	0	0	0	1	0	0	-89.13	-20	89.44	21.86	0	0	0	0
213	212	0.000628	0.003685	0	155.03	0	0	0	0	1	0	0	-97.48	-26	97.54	26.36	0	0	0	0
212	399	0.003344	0.032113	0.01037	320.29	0	0	0	0	1	0	0	-4.15	-8.68	4.15	7.62	0	0	0	0
408	212	0.002879	0.027648	0.00893	320.29	0	0	0	0	1	0	0	107.08	18.77	-106.75	-16.61	0	0	0	0
215	214	0.000578	0.003813	0	124.11	0	0	0	0	1	0	0	-84.48	-22.53	84.52	22.82	0	0	0	0
214	403	0.004217	0.040493	0.01307	320.29	0	0	0	0	1	0	0	-34.4	-18.07	34.47	17.34	0	0	0	0
217	216	0.0006	0.003129	0	71.72	0	0	0	0	1	0	0	-55.1	-14.69	55.12	14.8	0	0	0	0
219	218	0.000581	0.003657	0	0.6	0	0	0	0	1	0	0	-0.33	-0.09	0.33	0.09	0	0	0	0
218	399	0.004545	0.043647	0.01409	320.29	0	0	0	0	1	0	0	-32.79	11.87	32.84	-12.84	0	0	0	0
221	220	0.000872	0.02901	0	556	0	0	1	0	1	0	0	-209.61	-43.55	209.99	56.33	0	0	0	0
222	220	0.000485	0.02225	0	228	0	0	1	0	1	0	0	5.2	2	-5.2	-1.99	0	0	0	0
223	220	0.000575	0.03062	0	248	0	0	1	0	1	0	0	18	6.91	-18	-6.81	0	0	0	0
224	220	0.000543	0.02404	0	588	0	0	1	0	1	0	0	255.64	19.45	-255.3	-4.84	0	0	0	0
224	220	0.00043	0.02404	0	588	0	0	1	0	1	0	0	255.56	20.66	-255.3	-6.05	0	0	0	0
225	220	0.00018	0.01242	0	628	0	0	1	0	1	0	0	257.4	34.83	-257.29	-27.09	0	0	0	0
225	220	0.00018	0.01242	0	628	0	0	1	0	1	0	0	257.4	34.83	-257.29	-27.09	0	0	0	0
220	471	0.000978	0.014205	0.24789	1493.89	0	0	0	0	1	0	0	476.9	16.41	-474.82	-12.61	0	0	0	0
221	447	0.00397	0.038119	0.01231	320.29	0	0	0	0	1	0	0	154.25	14.1	-153.33	-6.57	0	0	0	0
221	478	0.003036	0.029155	0.00941	320.29	0	0	0	0	1	0	0	-31.28	18.43	31.32	-19.03	0	0	0	0
221	493	0.003413	0.032773	0.01058	320.29	0	0	0	0	1	0	0	86.65	11.02	-86.4	-9.71	0	0	0	0
227	226	0.000667	0.003347	0	8.92	0	0	0	0	1	0	0	-5.42	-1.45	5.42	1.45	0	0	0	0
229	228	0.00059	0.003589	0	77.87	0	0	0	0	1	0	0	-54.09	-14.42	54.11	14.54	0	0	0	0
228	468	0.004892	0.046972	0.01516	320.29	0	0	0	0	1	0	0	20.15	-9.02	-20.13	7.72	0	0	0	0
228	474	0.006513	0.059749	0.02117	320.29	0	0	0	0	1	0	0	133.76	16.97	-132.58	-8.19	0	0	0	0
231	230	0.00368	0.18877	0	65	0	0	1	0	1	0	0	2.9	1.35	-2.9	-1.33	0	0	0	0
285	230	0.002749	0.026397	0.00852	320.29	0	0	0	0	1	0	0	-118	8.28	118.38	-5.52	0	0	0	0
233	232	0.00046	0.0207	0	628	0	0	1	0	1	0	0	-294.63	-35.41	295.02	52.97	0	0	0	0
262	232	0.000253	0.003627	0.0649	1493.89	0	0	0	0	1	0	0	-141.55	-12.7	141.6	6.52	0	0	0	0
232	371	0.000494	0.006532	0.13765	1493.89	0	0	0	0	1	0	0	-42.76	12.14	42.77	-26.57	0	0	0	0
232	453	0.000324	0.004292	0.09045	1493.89	0	0	0	0	1	0	0	54.77	-54.82	-54.75	45.45	0	0	0	0
234	233	0.000551	0.003415	0	95.68	0	0	0	0	1	0	0	-59.96	-15.99	59.98	16.12	0	0	0	0
233	486	0.002266	0.021759	0.00702	320.29	0	0	0	0	1	0	0	88.47	9.05	-88.3	-8.12	0	0	0	0
236	235	0.00024	0.02788	0	507	0	0	1	0	1	0	0	-81.26	-25.39	81.28	27.33	0	0	0	0
235	271	0.000313	0.004136	0.08716	1493.89	0	0	0	0	1	0	0	85.49	4.9	-85.46	-13.85	0	0	0	0
235	407	0.001237	0.016366	0.3449	1493.89	0	0	0	0	1	0	0	-166.77	-32.23	167.09	-0.18	0	0	0	0
237	236	0.000696	0.003348	0	4.32	0	0	0	0	1	0	0	-2.71	-0.72	2.71	0.72	0	0	0	0
283	236	0.004516	0.041425	0.01468	320.29	0	0	0	0	1	0	0	-21.53	-11.93	21.55	10.64	0	0	0	0
239	238	0.000513	0.003619	0	64.09	0	0	0	0	1	0	0	-39.13	-10.44	39.14	10.49	0	0	0	0
241	240	0.00054	0.003983	0	27.17	0	0	0	0	1	0	0	-19.74	-5.26	19.74	5.28	0	0	0	0
240	272	0.011645	0.10682	0.03785	320.29	0	0	0	0	1	0	0	-34.12	1.84	34.25	-4.6	0	0	0	0
243	242	0.000606	0.003702	0	130.7	0	0	0	0	1	0	0	-74.47	-19.86	74.5	20.07	0	0	0	0
242	287	0.007052	0.067713	0.02186	320.29	0	0	0	0	1	0	0	-87.97	19.09	88.53	-16.04	0	0	0	0
242	320	0.003028	0.029073	0.00938	320.29	0	0	0	0	1	0	0	13.47	33.66	-13.43	-34.25	0	0	0	0
245	244	0.000598	0.003153	0	15.81	0	0	0	0	1	0	0	-11.84	-3.16	11.84	3.16	0	0	0	0
244	426	0.0037	0.033941	0.01203	320.29	0	0	0	0	1	0	0	-0.96	-13.58	0.96	12.41	0	0	0	0
247	246	0.00123	0.06785	0	271	0	0	1	0	1	0	0	18.98	-8.51	-18.98	8.79	0	0	0	0
248	246	0.001314	0.05441	0	336	0	0	1	0	1	0	0	0	0	0	0	0	0	0	0
249	246	0.001385	0.05427	0	333	0	0	1	0	1	0	0	0	0	0	0	0	0	0	0
250	246	0.00041	0.02016	0	628	0	0	1	0	1	0	0	0	0	0	0	0	0	0	0
250	246	0.000393	0.02016	0	628	0	0	1	0	1	0	0	0	0	0	0	0	0	0	0
246	332	0.000921	0.01337	0.23332	1493.89	0	0	0	0	1	0	0	23.61	3.07	-23.6	-27.74	0	0	0	0
428	246	0.001101	0.014563	0.30689	1493.89	0	0	0	0	1	0	0	-0.23	-20.49	0.23	-12.14	0	0	0	0
246	471	0.001086	0.014374	0.30292	1493.89	0	0	0	0	1	0	0	-4.86	0.28	4.86	-32.41	0	0	0	0
252	251	0.000661	0.003863	0	171.55	0	0	0	0	1	0	0	-118.68	-31.65	118.79	32.25	0	0	0	0
251	360	0.004529	0.041546	0.01472	320.29	0	0	0	0	1	0	0	-87.93	-17.03	88.29	18.96	0	0	0	0
417	251	0.004262	0.04093	0.01321	320.29	0	0	0	0	1	0	0	30.91	14.39	-30.86	-15.21	0	0	0	0
254	253	0.00422	0.13453	0	134	0	0	1	0	1	0	0	0	0	0	0	0	0	0	0
255	253	0.00273	0.10598	0	75	0	0	1	0	1	0	0	0	0	0	0	0	0	0	0
256	253	0.00659	0.18871	0	65	0	0	1	0	1	0	0	0	0	0	0	0	0	0	0
257	253	0.00255	0.08097	0	142	0	0	1	0	1	0	0	0	0	0	0	0	0	0	0
258	253	0.00935	0.25929	0	52	0	0	1	0	1	0	0	1.1	0.51	-1.1	-0.51	0	0	0	0
259	253	0.000652	0.003579	0	11.94	0	0	0	0	1	0	0	-8.16	-2.18	8.16	2.18	0	0	0	0
253	347	0.00255	0.024489	0.00791	320.29	0	0	0	0	1	0	0	41.01	7.79	-40.97	-8.13	0	0	0	0
253	417	0.005333	0.048916	0.01733	320.29	0	0	0	0	1	0	0	-26.79	-12.25	26.84	10.96	0	0	0	0
261	260	0.000574	0.003316	0	31.44	0	0	0	0	1	0	0	-18.68	-4.98	18.69	4.99	0	0	0	0
263	262	0.000384	0.01827	0	656	0	0	1	0	1	0	0	-424.81	-9.25	425.47	40.8	0	0	0	0
264	262	0.00052	0.05005	0	255	0	0	1	0	1	0	0	0	0	0	0	0	0	0	0
265	262	0.00023	0.03379	0	241	0	0	1	0	1	0	0	0	0	0	0	0	0	0	0
266	263	0.000571	0.003406	0	107.16	0	0	0	0	1	0	0	-61.78	-16.48	61.8	16.61	0	0	0	0
263	276	0.000864	0.008296	0.00268	320.29	0	0	0	0	1	0	0	116.73	56.2	-116.59	-55.15	0	0	0	0
263	326	0.002523	0.024229	0.00782	320.29	0	0	0	0	1	0	0	128.61	23.34	-128.19	-20.18	0	0	0	0
263	476	0.001806	0.017343	0.0056	320.29	0	0	0	0	1	0	0	18.8	30.15	-18.78	-30.52	0	0	0	0
263	491	0.003463	0.033251	0.01073	320.29	0	0	0	0	1	0	0	98.86	8.4	-98.53	-6.38	0	0	0	0
268	267	0.000502	0.003575	0	206.87	0	0	0	0	1	0	0	-117.15	-31.24	117.22	31.75	0	0	0	0
312	267	0.004476	0.042984	0.01388	320.29	0	0	0	0	1	0	0	67.94	1.28	-67.75	-0.81	0	0	0	0
270	269	0.000574	0.003977	0	10.95	0	0	0	0	1	0	0	-6.8	-1.81	6.8	1.82	0	0	0	0
475	269	0.003534	0.033937	0.01096	320.29	0	0	0	0	1	0	0	-35.06	5.96	35.11	-6.67	0	0	0	0
272	271	0.001006	0.03765	0	484	0	0	1	0	1	0	0	-85.39	-11.18	85.46	13.85	0	0	0	0
273	272	0.000567	0.003997	0	15.37	0	0	0	0	1	0	0	-9.49	-2.53	9.49	2.53	0	0	0	0
275	274	0.0012	0.04081	0	225	0	0	1	0	1	0	0	0	0	0	0	0	0	0	0
277	276	0.000539	0.003663	0	0.66	0	0	0	0	1	0	0	-0.4	-0.11	0.41	0.11	0	0	0	0
278	276	0.000529	0.00385	0	8.45	0	0	0	0	1	0	0	-5.77	-1.54	5.77	1.54	0	0	0	0
276	320	0.00321	0.030825	0.00995	320.29	0	0	0	0	1	0	0	137.73	11.4	-137.14	-6.72	0	0	0	0
276	485	0.002629	0.024118	0.00855	320.29	0	0	0	0	1	0	0	19.1	18.04	-19.08	-18.76	0	0	0	0
280	279	0.000691	0.003081	0	24.56	0	0	0	0	1	0	0	-16.94	-4.52	16.95	4.53	0	0	0	0
279	340	0.005965	0.057279	0.01849	320.29	0	0	0	0	1	0	0	18.01	-2.03	-17.99	0.36	0	0	0	0
279	468	0.003204	0.030766	0.00993	320.29	0	0	0	0	1	0	0	-34.95	-2.5	34.99	1.88	0	0	0	0
282	281	0.000539	0.003617	0	203.73	0	0	0	0	1	0	0	-117.3	-31.28	117.38	31.82	0	0	0	0
310	281	0.002251	0.021614	0.00698	320.29	0	0	0	0	1	0	0	-77.72	44.99	77.9	-43.94	0	0	0	0
281	328	0.004967	0.04556	0.01615	320.29	0	0	0	0	1	0	0	-129.62	6.85	130.47	-0.67	0	0	0	0
281	384	0.00383	0.03678	0.01187	320.29	0	0	0	0	1	0	0	-65.66	5.27	65.83	-4.82	0	0	0	0
284	283	0.000645	0.003988	0	48.08	0	0	0	0	1	0	0	-32.65	-8.71	32.66	8.75	0	0	0	0
286	285	0.000667	0.003266	0	13.41	0	0	0	0	1	0	0	-8.27	-2.2	8.27	2.21	0	0	0	0
285	487	0.003238	0.031094	0.01004	320.29	0	0	0	0	1	0	0	109.73	-10.48	-109.35	13.17	0	0	0	0
288	287	0.000507	0.003818	0	89.94	0	0	0	0	1	0	0	-58.11	-15.5	58.12	15.63	0	0	0	0
287	415	0.004281	0.039274	0.01392	320.29	0	0	0	0	1	0	0	45.43	7.58	-45.34	-8.2	0	0	0	0
287	476	0.007441	0.068262	0.02419	320.29	0	0	0	0	1	0	0	21.36	-7.25	-21.32	5.09	0	0	0	0
290	289	0.000543	0.003807	0	5.93	0	0	0	0	1	0	0	-3.69	-0.98	3.69	0.98	0	0	0	0
468	289	0.00577	0.055406	0.01789	320.29	0	0	0	0	1	0	0	-134.14	-7.95	135.18	16.04	0	0	0	0
292	291	0.000582	0.003221	0	12.61	0	0	0	0	1	0	0	-7.62	-2.03	7.62	2.03	0	0	0	0
294	293	0.000645	0.00329	0	35.71	0	0	0	0	1	0	0	-25.6	-6.83	25.61	6.85	0	0	0	0
296	295	0.000531	0.003433	0	10.75	0	0	0	0	1	0	0	-7.79	-2.08	7.79	2.08	0	0	0	0
314	295	0.003193	0.030657	0.0099	320.29	0	0	0	0	1	0	0	-53.15	4.75	53.24	-4.9	0	0	0	0
295	447	0.00342	0.031369	0.01112	320.29	0	0	0	0	1	0	0	-95.44	10.62	95.75	-8.92	0	0	0	0
477	295	0.003486	0.03347	0.0108	320.29	0	0	0	0	1	0	0	27.69	1.04	-27.66	-1.89	0	0	0	0
298	297	0.000588	0.03135	0	348	0	0	1	0	1	0	0	-84.21	-6.9	84.25	9.07	0	0	0	0
425	297	0.000275	0.003997	0.06976	1493.89	0	0	0	0	1	0	0	-132.78	-15.56	132.83	9.01	0	0	0	0
297	440	0.000652	0.009346	0.16726	1493.89	0	0	0	0	1	0	0	-254.1	50.05	254.53	-61.21	0	0	0	0
299	298	0.00054	0.003634	0	20.05	0	0	0	0	1	0	0	-14.57	-3.88	14.57	3.89	0	0	0	0
298	426	0.003241	0.031118	0.01005	320.29	0	0	0	0	1	0	0	69.64	3.01	-69.49	-2.58	0	0	0	0
301	300	0.00245	0.08126	0	67	0	0	1	0	1	0	0	2.9	1.35	-2.9	-1.34	0	0	0	0
302	300	0.00367	0.07834	0	75	0	0	1	0	1	0	0	2.9	1.35	-2.9	-1.34	0	0	0	0
303	300	0.000646	0.003997	0	139.23	0	0	0	0	1	0	0	-86.76	-23.14	86.81	23.46	0	0	0	0
405	300	0.003374	0.032399	0.01046	320.29	0	0	0	0	1	0	0	-33.75	0.74	33.79	-1.43	0	0	0	0
300	478	0.008364	0.080315	0.02593	320.29	0	0	0	0	1	0	0	40.64	-17.71	-40.48	16.59	0	0	0	0
305	304	0.02066	0.53593	0	28	0	0	1	0	1	0	0	1	0.38	-1	-0.38	0	0	0	0
306	304	0.00522	0.24992	0	63	0	0	1	0	1	0	0	2.4	0.92	-2.4	-0.9	0	0	0	0
307	304	0.000547	0.003467	0	122.19	0	0	0	0	1	0	0	-76.04	-20.28	76.08	20.5	0	0	0	0
309	308	0.000658	0.003995	0	13.62	0	0	0	0	1	0	0	-9.03	-2.41	9.03	2.41	0	0	0	0
308	500	0.006944	0.066685	0.02153	320.29	0	0	0	0	1	0	0	-17.22	-6.13	17.25	4.12	0	0	0	0
311	310	0.000617	0.003587	0	60.45	0	0	0	0	1	0	0	-43.83	-11.69	43.84	11.76	0	0	0	0
358	310	0.002931	0.026886	0.00953	320.29	0	0	0	0	1	0	0	-33.84	5.96	33.88	-6.6	0	0	0	0
313	312	0.000642	0.003976	0	17.95	0	0	0	0	1	0	0	-12.44	-3.32	12.44	3.32	0	0	0	0
399	312	0.004822	0.046299	0.01495	320.29	0	0	0	0	1	0	0	72.14	0.38	-71.9	0.37	0	0	0	0
315	314	0.000536	0.003143	0	0.67	0	0	0	0	1	0	0	-0.43	-0.11	0.43	0.11	0	0	0	0
317	316	0.000671	0.003045	0	5.45	0	0	0	0	1	0	0	-3.75	-1	3.75	1	0	0	0	0
319	318	0.00159	0.07586	0	120	0	0	1	0	1	0	0	42.3	16.24	-42.27	-14.79	0	0	0	0
318	336	0.005467	0.050154	0.01777	320.29	0	0	0	0	1	0	0	47.85	6.16	-47.73	-6.88	0	0	0	0
378	318	0.001301	0.012497	0.00403	320.29	0	0	0	0	1	0	0	-49.49	-7.92	49.53	7.8	0	0	0	0
321	320	0.000626	0.003619	0	269.4	0	0	0	0	1	0	0	-150.42	-40.11	150.57	40.98	0	0	0	0
323	322	0.000658	0.003109	0	75.55	0	0	0	0	1	0	0	-45.27	-12.07	45.28	12.14	0	0	0	0
324	322	0.001572	0.014419	0.00511	320.29	0	0	0	0	1	0	0	-148.57	-44.84	148.96	47.89	0	0	0	0
325	324	0.000537	0.003712	0	146.36	0	0	0	0	1	0	0	-103.46	-27.59	103.52	28.03	0	0	0	0
327	326	0.000571	0.003193	0	159.77	0	0	0	0	1	0	0	-121.07	-32.28	121.16	32.77	0	0	0	0
491	326	0.002389	0.022943	0.00741	320.29	0	0	0	0	1	0	0	-7.03	11.87	7.04	-12.59	0	0	0	0
329	328	0.000554	0.003034	0	40.66	0	0	0	0	1	0	0	-26.02	-6.94	26.02	6.96	0	0	0	0
331	330	0.00057	0.003882	0	77.39	0	0	0	0	1	0	0	-57.17	-15.25	57.19	15.38	0	0	0	0
333	330	0.001518	0.014574	0.0047	320.29	0	0	0	0	1	0	0	103.71	28.29	-103.54	-27.16	0	0	0	0
449	330	0.002073	0.019909	0.00643	320.29	0	0	0	0	1	0	0	-46.3	-12	46.35	11.78	0	0	0	0
333	332	0.00074	0.02644	0	508	0	0	1	0	1	0	0	-113.11	-29.06	113.2	32.52	0	0	0	0
332	471	0.000258	0.003415	0.07196	1493.89	0	0	0	0	1	0	0	-112.98	5.55	113.01	-12.76	0	0	0	0
334	333	0.000662	0.003196	0	0.85	0	0	0	0	1	0	0	-0.5	-0.13	0.5	0.13	0	0	0	0
335	333	0.000627	0.003552	0	1.26	0	0	0	0	1	0	0	-0.83	-0.22	0.83	0.22	0	0	0	0
337	336	0.000563	0.003904	0	9.71	0	0	0	0	1	0	0	-5.67	-1.51	5.67	1.51	0	0	0	0
378	336	0.005079	0.048769	0.01574	320.29	0	0	0	0	1	0	0	36.48	4.44	-36.42	-5.43	0	0	0	0
492	336	0.006321	0.060695	0.01959	320.29	0	0	0	0	1	0	0	-31.08	-17	31.15	15.74	0	0	0	0
339	338	0.000558	0.003629	0	98.2	0	0	0	0	1	0	0	-75.1	-20.03	75.14	20.24	0	0	0	0
338	459	0.001952	0.017902	0.00634	320.29	0	0	0	0	1	0	0	48.05	5.09	-48.01	-5.33	0	0	0	0
341	340	0.000618	0.003847	0	43.31	0	0	0	0	1	0	0	-24.22	-6.46	24.23	6.48	0	0	0	0
460	340	0.003698	0.035512	0.01146	320.29	0	0	0	0	1	0	0	6.24	5.72	-6.24	-6.84	0	0	0	0
343	342	0.000576	0.003628	0	3.7	0	0	0	0	1	0	0	-2.51	-0.67	2.51	0.67	0	0	0	0
344	342	0.000571	0.003876	0	3.28	0	0	0	0	1	0	0	-2.43	-0.65	2.43	0.65	0	0	0	0
346	345	0.000557	0.003186	0	72.41	0	0	0	0	1	0	0	-47.58	-12.69	47.6	12.77	0	0	0	0
345	415	0.007099	0.065124	0.02308	320.29	0	0	0	0	1	0	0	-39.16	-7.89	39.28	6.58	0	0	0	0
348	347	0.000579	0.003119	0	138.46	0	0	0	0	1	0	0	-86.4	-23.04	86.44	23.3	0	0	0	0
347	417	0.005551	0.050922	0.01805	320.29	0	0	0	0	1	0	0	-45.48	-15.17	45.61	14.57	0	0	0	0
350	349	0.0027	0.0716	0	183	0	0	1	0	1	0	0	15	5.76	-14.99	-5.58	0	0	0	0
351	349	0.00389	0.07925	0	142	0	0	1	0	1	0	0	6.2	2.38	-6.2	-2.35	0	0	0	0
352	349	0.003046	0.07211	0	150	0	0	1	0	1	0	0	14.4	5.53	-14.39	-5.37	0	0	0	0
353	349	0.0027	0.0722	0	206	0	0	1	0	1	0	0	74	28.42	-73.84	-24.22	0	0	0	0
349	403	0.002617	0.025132	0.00811	320.29	0	0	0	0	1	0	0	54.33	22.63	-54.24	-22.63	0	0	0	0
355	354	0.000688	0.00376	0	28.27	0	0	0	0	1	0	0	-19.97	-5.32	19.97	5.34	0	0	0	0
421	354	0.004766	0.04577	0.01477	320.29	0	0	0	0	1	0	0	-55.75	-13.89	55.9	13.82	0	0	0	0
479	354	0.004376	0.042023	0.01357	320.29	0	0	0	0	1	0	0	76.12	20.18	-75.87	-19.16	0	0	0	0
357	356	0.000552	0.003425	0	84.77	0	0	0	0	1	0	0	-55.73	-14.86	55.75	14.98	0	0	0	0
356	382	0.002848	0.027352	0.00883	320.29	0	0	0	0	1	0	0	-4.12	-9.26	4.12	8.39	0	0	0	0
359	358	0.00067	0.003506	0	25	0	0	0	0	1	0	0	-14.59	-3.89	14.59	3.9	0	0	0	0
361	360	0.01388	0.33724	0	52	0	0	1	0	1	0	0	0	0	0	0	0	0	0	0
362	360	0.00354	0.11798	0	162	0	0	1	0	1	0	0	0	0	0	0	0	0	0	0
363	360	0.00224	0.11593	0	75	0	0	1	0	1	0	0	0	0	0	0	0	0	0	0
364	360	0.000513	0.003558	0	40.25	0	0	0	0	1	0	0	-30.44	-8.12	30.44	8.15	0	0	0	0
360	417	0.008124	0.078008	0.02518	320.29	0	0	0	0	1	0	0	30.91	1.14	-30.83	-2.91	0	0	0	0
366	365	0.000541	0.003915	0	101.52	0	0	0	0	1	0	0	-56.49	-15.06	56.51	15.2	0	0	0	0
365	374	0.002836	0.027231	0.00879	320.29	0	0	0	0	1	0	0	30.12	7.18	-30.09	-7.82	0	0	0	0
365	454	0.002302	0.022105	0.00714	320.29	0	0	0	0	1	0	0	-86.63	-22.38	86.81	23.39	0	0	0	0
368	367	0.000517	0.003214	0	17.62	0	0	0	0	1	0	0	-11.45	-3.05	11.45	3.06	0	0	0	0
367	461	0.006326	0.058028	0.02056	320.29	0	0	0	0	1	0	0	91.11	11.53	-90.59	-8.85	0	0	0	0
367	468	0.008321	0.076331	0.02705	320.29	0	0	0	0	1	0	0	68.3	6.41	-67.92	-5.65	0	0	0	0
370	369	0.000569	0.003063	0	62.18	0	0	0	0	1	0	0	-35.6	-9.49	35.61	9.53	0	0	0	0
372	371	0.00025	0.03602	0	508	0	0	1	0	1	0	0	-180.84	-19.27	180.92	30.75	0	0	0	0
373	372	0.000581	0.003181	0	48.53	0	0	0	0	1	0	0	-28.84	-7.69	28.84	7.72	0	0	0	0
375	374	0.000501	0.003007	0	43.22	0	0	0	0	1	0	0	-24.76	-6.6	24.77	6.62	0	0	0	0
377	376	0.000502	0.003355	0	162.43	0	0	0	0	1	0	0	-90.39	-24.1	90.43	24.39	0	0	0	0
376	429	0.002745	0.026362	0.00851	320.29	0	0	0	0	1	0	0	-134.35	-34.44	134.86	38.55	0	0	0	0
376	460	0.002246	0.021565	0.00696	320.29	0	0	0	0	1	0	0	32.61	12.3	-32.59	-12.74	0	0	0	0
376	469	0.004909	0.045034	0.01596	320.29	0	0	0	0	1	0	0	117.9	25.28	-117.2	-20.4	0	0	0	0
376	495	0.003326	0.031936	0.01031	320.29	0	0	0	0	1	0	0	-17.68	-4.37	17.69	3.43	0	0	0	0
379	378	0.000587	0.003819	0	20.35	0	0	0	0	1	0	0	-13.01	-3.47	13.01	3.48	0	0	0	0
381	380	0.000529	0.00359	0	14.39	0	0	0	0	1	0	0	-10.13	-2.7	10.13	2.71	0	0	0	0
493	380	0.003409	0.032738	0.01057	320.29	0	0	0	0	1	0	0	82.35	8.63	-82.12	-7.52	0	0	0	0
383	382	0.000541	0.003573	0	44.49	0	0	0	0	1	0	0	-29.95	-7.99	29.95	8.02	0	0	0	0
385	384	0.000568	0.003148	0	48.14	0	0	0	0	1	0	0	-36.62	-9.77	36.63	9.81	0	0	0	0
441	384	0.002936	0.028195	0.0091	320.29	0	0	0	0	1	0	0	102.77	7.08	-102.46	-4.99	0	0	0	0
387	386	0.00016	0.01653	0	658	0	0	1	0	1	0	0	-197.6	-32.19	197.66	38.55	0	0	0	0
387	386	0.00016	0.01653	0	658	0	0	1	0	1	0	0	-197.6	-32.19	197.66	38.55	0	0	0	0
388	386	0.00036	0.04243	0	255	0	0	1	0	1	0	0	0	0	0	0	0	0	0	0
389	386	0.00043	0.03576	0	374	0	0	1	0	1	0	0	0	0	0	0	0	0	0	0
390	386	0.00021	0.02728	0	389	0	0	1	0	1	0	0	0	0	0	0	0	0	0	0
391	386	0.00023	0.02451	0	399	0	0	1	0	1	0	0	0	0	0	0	0	0	0	0
392	386	0.00029	0.03299	0	297	0	0	1	0	1	0	0	0	0	0	0	0	0	0	0
393	386	0.00024	0.03349	0	283	0	0	1	0	1	0	0	0	0	0	0	0	0	0	0
394	386	0.00039	0.022	0	318	0	0	1	0	1	0	0	0	0	0	0	0	0	0	0
395	386	0.00104	0.05624	0	312	0	0	1	0	1	0	0	0	0	0	0	0	0	0	0
396	386	0.00015	0.02168	0	313	0	0	1	0	1	0	0	0	0	0	0	0	0	0	0
440	386	0.000855	0.012265	0.21949	1493.89	0	0	0	0	1	0	0	-641.82	-38.68	645.25	64.93	0	0	0	0
397	387	0.000514	0.0033	0	66.7	0	0	0	0	1	0	0	-39.95	-10.65	39.96	10.71	0	0	0	0
398	387	0.000692	0.003106	0	24.41	0	0	0	0	1	0	0	-16.77	-4.47	16.77	4.48	0	0	0	0
387	467	0.003151	0.028903	0.01024	320.29	0	0	0	0	1	0	0	87.83	12.22	-87.6	-11.1	0	0	0	0
387	470	0.002138	0.019612	0.00695	320.29	0	0	0	0	1	0	0	91.84	15.27	-91.66	-14.36	0	0	0	0
400	399	0.000694	0.003966	0	31.68	0	0	0	0	1	0	0	-23.02	-6.14	23.03	6.16	0	0	0	0
408	399	0.001618	0.015538	0.00502	320.29	0	0	0	0	1	0	0	182.36	16.8	-181.85	-12.4	0	0	0	0
402	401	0.000511	0.003712	0	123.69	0	0	0	0	1	0	0	-88.35	-23.56	88.39	23.87	0	0	0	0
404	403	0.000616	0.003466	0	26.17	0	0	0	0	1	0	0	-19.77	-5.27	19.77	5.29	0	0	0	0
406	405	0.000583	0.003551	0	8.23	0	0	0	0	1	0	0	-5.25	-1.4	5.25	1.4	0	0	0	0
492	405	0.004321	0.041496	0.0134	320.29	0	0	0	0	1	0	0	-28.46	1.12	28.5	-2.14	0	0	0	0
408	407	0.00036	0.01366	0	595	0	0	1	0	1	0	0	-289.44	-35.58	289.73	46.57	0	0	0	0
409	407	0.00054	0.0611	0	326	0	0	1	0	1	0	0	0	0	0	0	0	0	0	0
410	407	0.00027	0.04197	0	445	0	0	1	0	1	0	0	77.97	14.91	-77.95	-12.46	0	0	0	0
411	407	0.00016	0.02349	0	441	0	0	1	0	1	0	0	79.43	25.56	-79.42	-24.05	0	0	0	0
412	407	0.0002	0.02693	0	431	0	0	1	0	1	0	0	79.43	22.36	-79.42	-20.67	0	0	0	0
413	407	0.00056	0.04036	0	436	0	0	1	0	1	0	0	60.26	14.63	-60.24	-13.2	0	0	0	0
414	407	0.000999	0.04423	0	342	0	0	1	0	1	0	0	0	0	0	0	0	0	0	0
416	415	0.00053	0.003834	0	8.66	0	0	0	0	1	0	0	-6.06	-1.62	6.06	1.62	0	0	0	0
418	417	0.000648	0.003517	0	109.42	0	0	0	0	1	0	0	-63.61	-16.96	63.64	17.12	0	0	0	0
417	468	0.003561	0.032669	0.01158	320.29	0	0	0	0	1	0	0	-182.25	6.76	183.44	3	0	0	0	0
417	469	0.004887	0.044829	0.01589	320.29	0	0	0	0	1	0	0	11.35	12.44	-11.33	-13.87	0	0	0	0
417	474	0.003457	0.033193	0.01072	320.29	0	0	0	0	1	0	0	34.73	36.2	-34.64	-36.4	0	0	0	0
420	419	0.000565	0.003753	0	8.45	0	0	0	0	1	0	0	-5.23	-1.39	5.23	1.39	0	0	0	0
422	421	0.000628	0.003106	0	65.44	0	0	0	0	1	0	0	-49.18	-13.11	49.19	13.19	0	0	0	0
424	423	0.000683	0.003864	0	273.23	0	0	0	0	1	0	0	-157.09	-41.89	157.28	42.92	0	0	0	0
423	496	0.003743	0.035945	0.0116	320.29	0	0	0	0	1	0	0	-190.74	-17.11	192.12	29.2	0	0	0	0
426	425	0.00087	0.03219	0	554	0	0	1	0	1	0	0	-132.63	-10	132.78	15.56	0	0	0	0
427	426	0.000676	0.003027	0	18.8	0	0	0	0	1	0	0	-14.43	-3.85	14.43	3.86	0	0	0	0
429	428	0.00013	0.00868	0	646	0	0	1	0	1	0	0	-395.72	-110.08	395.93	124.14	0	0	0	0
430	428	0.00118	0.06355	0	207	0	0	1	0	1	0	0	1	0.38	-1	-0.38	0	0	0	0
431	428	0.00037	0.03646	0	225	0	0	1	0	1	0	0	3.3	1.27	-3.3	-1.26	0	0	0	0
432	428	0.00023	0.03175	0	204	0	0	1	0	1	0	0	1.2	0.46	-1.2	-0.46	0	0	0	0
433	428	0.0008	0.09098	0	218	0	0	1	0	1	0	0	6.7	2.57	-6.7	-2.53	0	0	0	0
434	428	0.0003	0.02264	0	231	0	0	1	0	1	0	0	4.3	1.65	-4.3	-1.65	0	0	0	0
435	428	0.00029	0.02826	0	458	0	0	1	0	1	0	0	0	0	0	0	0	0	0	0
436	428	0.00022	0.01431	0	457	0	0	1	0	1	0	0	0	0	0	0	0	0	0	0
437	428	0.00014	0.01844	0	471	0	0	1	0	1	0	0	197	52.73	-196.95	-45.64	0	0	0	0
438	428	0.000524	0.02322	0	492	0	0	1	0	1	0	0	197	40.14	-196.8	-31.46	0	0	0	0
439	428	0.00012	0.01452	0	474	0	0	1	0	1	0	0	197	65.63	-196.95	-59.84	0	0	0	0
429	466	0.001853	0.016994	0.00602	320.29	0	0	0	0	1	0	0	30.43	7.65	-30.41	-8.11	0	0	0	0
441	440	0.00058	0.02873	0	649	0	0	1	0	1	0	0	-259	-40.68	259.4	60.47	0	0	0	0
442	440	0.0005	0.04469	0	267	0	0	1	0	1	0	0	0	0	0	0	0	0	0	0
443	440	0.00018	0.02669	0	385	0	0	1	0	1	0	0	0	0	0	0	0	0	0	0
444	440	0.00108	0.08953	0	202	0	0	1	0	1	0	0	0	0	0	0	0	0	0	0
446	445	0.00068	0.003579	0	130.2	0	0	0	0	1	0	0	-88.68	-23.65	88.74	23.95	0	0	0	0
445	461	0.00331	0.031785	0.01026	320.29	0	0	0	0	1	0	0	1.14	14.65	-1.14	-15.61	0	0	0	0
448	447	0.000578	0.003842	0	76.12	0	0	0	0	1	0	0	-57.56	-15.35	57.58	15.48	0	0	0	0
450	449	0.000521	0.003328	0	1.48	0	0	0	0	1	0	0	-1.12	-0.3	1.12	0.3	0	0	0	0
451	449	0.000525	0.003193	0	3.29	0	0	0	0	1	0	0	-2.21	-0.59	2.21	0.59	0	0	0	0
495	449	0.001762	0.016167	0.00573	320.29	0	0	0	0	1	0	0	-42.93	-11.38	42.97	11.11	0	0	0	0
454	453	0.0002	0.03057	0	634	0	0	1	0	1	0	0	-255.12	-42.48	255.25	62.33	0	0	0	0
455	453	0.00026	0.01616	0	551	0	0	1	0	1	0	0	66.85	56.51	-66.83	-55.37	0	0	0	0
456	453	0.00015	0.01668	0	651	0	0	1	0	1	0	0	133.7	55.65	-133.67	-52.42	0	0	0	0
485	454	0.00205	0.019688	0.00636	320.29	0	0	0	0	1	0	0	-77	-6.57	77.12	7.06	0	0	0	0
458	457	0.00201	0.07218	0	207	0	0	1	0	1	0	0	109.6	0	-109.37	8.32	0	0	0	0
459	496	0.002071	0.019002	0.00673	320.29	0	0	0	0	1	0	0	-26.46	-14.53	26.48	14.01	0	0	0	0
463	462	0.00181	0.09575	0	80	0	0	1	0	1	0	0	0	0	0	0	0	0	0	0
462	465	0.003271	0.031414	0.01014	320.29	0	0	0	0	1	0	0	-59.19	-9.47	59.3	9.49	0	0	0	0
462	477	0.005013	0.048141	0.01554	320.29	0	0	0	0	1	0	0	59.19	9.47	-59.02	-9.39	0	0	0	0
465	464	0.00036	0.02723	0	384	0	0	1	0	1	0	0	-81.19	-16.71	81.21	18.5	0	0	0	0
471	464	0.000427	0.006128	0.10966	1493.89	0	0	0	0	1	0	0	95.61	2.1	-95.57	-13.18	0	0	0	0
470	467	0.001632	0.014967	0.0053	320.29	0	0	0	0	1	0	0	49.1	3.01	-49.07	-3.21	0	0	0	0
472	471	0.00016	0.01869	0	501	0	0	1	0	1	0	0	-152.59	-37.18	152.63	41.59	0	0	0	0
476	486	0.002501	0.024018	0.00775	320.29	0	0	0	0	1	0	0	-19.75	9.47	19.76	-10.16	0	0	0	0
480	479	0.00242	0.06304	0	221	0	0	1	0	1	0	0	56	9.62	-55.93	-7.74	0	0	0	0
481	479	0.00104	0.05504	0	160	0	0	1	0	1	0	0	45	12.1	-44.98	-11	0	0	0	0
482	479	0.00123	0.03182	0	187	0	0	1	0	1	0	0	45	17.28	-44.97	-16.6	0	0	0	0
483	479	0.00343	0.10067	0	187	0	0	1	0	1	0	0	24	6.25	-23.98	-5.68	0	0	0	0
484	479	0.00146	0.05489	0	140	0	0	1	0	1	0	0	28	10.75	-27.99	-10.29	0	0	0	0
485	499	0.003774	0.034616	0.01227	320.29	0	0	0	0	1	0	0	68.21	17.89	-68.02	-17.45	0	0	0	0
500	489	0.004696	0.043073	0.01526	320.29	0	0	0	0	1	0	0	-6.24	-8	6.25	6.45	0	0	0	0
494	493	0.00119	0.0643	0	75	0	0	1	0	1	0	0	0	0	0	0	0	0	0	0
497	496	0.00147	0.0647	0	204	0	0	1	0	1	0	0	60	23.04	-59.94	-20.51	0	0	0	0
498	496	0.004006	0.11755	0	150	0	0	1	0	1	0	0	18	6.91	-17.99	-6.49	0	0	0	0
